test/fixtures/powermodels/case14/sol_dc_opf.json
{
  "termination_status": "OPTIMAL",
  "objective": 7642.591776958498,
  "solution": {
    "baseMVA": 100,
    "branch": {
      "4": {
        "qf": null,
        "qt": null,
        "pt": -0.5352845662580182,
        "pf": 0.5352845662580182
      },
      "1": {
        "qf": null,
        "qt": null,
        "pt": -1.4792071061141476,
        "pf": 1.4792071061141476
      },
      "12": {
        "qf": null,
        "qt": null,
        "pt": -0.07277761962494957,
        "pf": 0.07277761962494957
      },
      "20": {
        "qf": null,
        "qt": null,
        "pt": -0.048539887866968966,
        "pf": 0.048539887866968966
      },
      "2": {
        "qf": null,
        "qt": null,
        "pt": -0.7304698394730005,
        "pf": 0.7304698394730005
      },
      "6": {
        "qf": null,
        "qt": null,
        "pt": 0.22726295774141336,
        "pf": -0.22726295774141336
      },
      "11": {
        "qf": null,
        "qt": null,
        "pt": -0.06331934526597854,
        "pf": 0.06331934526597854
      },
      "13": {
        "qf": null,
        "qt": null,
        "pt": -0.17176226824201937,
        "pf": 0.17176226824201937
      },
      "5": {
        "qf": null,
        "qt": null,
        "pt": -0.3925085520103942,
        "pf": 0.3925085520103942
      },
      "15": {
        "qf": null,
        "qt": null,
        "pt": -0.2904714349386128,
        "pf": 0.2904714349386128
      },
      "16": {
        "qf": null,
        "qt": null,
        "pt": -0.06168065473402146,
        "pf": 0.06168065473402146
      },
      "14": {
        "qf": null,
        "qt": null,
        "pt": 0.0,
        "pf": 0.0
      },
      "7": {
        "qf": null,
        "qt": null,
        "pt": 0.6271191583504475,
        "pf": -0.6271191583504475
      },
      "8": {
        "qf": null,
        "qt": null,
        "pt": -0.2904714349386128,
        "pf": 0.2904714349386128
      },
      "17": {
        "qf": null,
        "qt": null,
        "pt": -0.10046011213303103,
        "pf": 0.10046011213303103
      },
      "19": {
        "qf": null,
        "qt": null,
        "pt": -0.011777619624949578,
        "pf": 0.011777619624949578
      },
      "10": {
        "qf": null,
        "qt": null,
        "pt": -0.41985923313294743,
        "pf": 0.41985923313294743
      },
      "9": {
        "qf": null,
        "qt": null,
        "pt": -0.1666693319284396,
        "pf": 0.1666693319284396
      },
      "18": {
        "qf": null,
        "qt": null,
        "pt": 0.028319345265978547,
        "pf": -0.028319345265978547
      },
      "3": {
        "qf": null,
        "qt": null,
        "pt": -0.7147370422585867,
        "pf": 0.7147370422585867
      }
    },
    "gen": {
      "4": {
        "qg": null,
        "pg": 0.0,
        "pg_cost": 0.0
      },
      "1": {
        "qg": null,
        "pg": 2.209676945587148,
        "pg_cost": 6520.331603837993
      },
      "5": {
        "qg": null,
        "pg": 0.0,
        "pg_cost": 0.0
      },
      "2": {
        "qg": null,
        "pg": 0.3803230544128513,
        "pg_cost": 1122.2601731205043
      },
      "3": {
        "qg": null,
        "pg": 0.0,
        "pg_cost": 0.0
      }
    },
    "multiinfrastructure": false,
    "multinetwork": false,
    "bus": {
      "4": {
        "va": -0.2015468374200631,
        "vm": 1.0
      },
      "1": {
        "va": 0.0,
        "vm": 1.0
      },
      "12": {
        "va": -0.3012127396502141,
        "vm": 1.0
      },
      "2": {
        "va": -0.09691402219778576,
        "vm": 1.0
      },
      "6": {
        "va": -0.2782976120145403,
        "vm": 1.0
      },
      "11": {
        "va": -0.29376370763028214,
        "vm": 1.0
      },
      "13": {
        "va": -0.30644264743339744,
        "vm": 1.0
      },
      "5": {
        "va": -0.17248468808037482,
        "vm": 1.0
      },
      "14": {
        "va": -0.3274105324082392,
        "vm": 1.0
      },
      "7": {
        "va": -0.2622902238944258,
        "vm": 1.0
      },
      "8": {
        "va": -0.26229022389442574,
        "vm": 1.0
      },
      "10": {
        "va": -0.3001956192960736,
        "vm": 1.0
      },
      "9": {
        "va": -0.2942449864520226,
        "vm": 1.0
      },
      "3": {
        "va": -0.24638234021016206,
        "vm": 1.0
      }
    },
    "per_unit": true
  }
}

